FoamFile
{
    version     2.0;
    format      ascii;
    class       volScalarField;
    location    0;
    object      epsilon;
}
dimensions [0 2 -3 0 0 0 0];
internalField uniform 0.001;
boundaryField
{
    XMin
    {
        type fixedValue;
        value uniform 0.01;
    }
    XMax
    {
        type zeroGradient;
    }
    YMin
    {
        type zeroGradient;
    }
    YMax
    {
        type zeroGradient;
    }
    ZMin
    {
        type zeroGradient;
    }
    ZMax
    {
        type zeroGradient;
    }
    ball
    {
        type epsilonWallFunction;
        value uniform 0.0;
    }
}
