/*--------------------------------*- C++ -*----------------------------------*\
| =========                 |                                                 |
| \\      /  F ield         | OpenFOAM: The Open Source CFD Toolbox           |
|  \\    /   O peration     | Version:  v1912                                 |
|   \\  /    A nd           | Website:  www.openfoam.com                      |
|    \\/     M anipulation  |                                                 |
\*---------------------------------------------------------------------------*/
FoamFile
{
    version     2.0;
    format      ascii;
    class       dictionary;
    object      blockMeshDict;
}
// * * * * * * * * * * * * * * * * * * * * * * * * * * * * * * * * * * * * * //

scale   1;
verbose yes;

// basketball r = 0.125m
//r_in    0.128;
r_ami   0.30;
a_out   1.5;
ma_out #calc "-$a_out";

x_in    -2.5;
x_out   2.5;

geometry
{
}


n    24;
t    48;
n_in  6;
n_out 6;

v  #calc "1.0/sqrt(3.0)";
a  #calc "1.0/sqrt(2.0)";
 
 v_ami #calc "$r_ami*$v";
mv_ami #calc "-$v_ami";
 a_ami #calc "$r_ami*$a";
ma_ami #calc "-$a_ami";

vertices
(
    ($mv_ami $mv_ami $mv_ami) // 0
    ( $v_ami $mv_ami $mv_ami) // 1
    ( $v_ami  $v_ami $mv_ami) // 2
    ($mv_ami  $v_ami $mv_ami) // 3
    ($mv_ami $mv_ami  $v_ami) // 4
    ( $v_ami $mv_ami  $v_ami) // 5
    ( $v_ami  $v_ami  $v_ami) // 6
    ($mv_ami  $v_ami  $v_ami) // 7

    ($ma_out $ma_out $ma_out) // 8
    ( $a_out $ma_out $ma_out) // 9
    ( $a_out  $a_out $ma_out) // 10
    ($ma_out  $a_out $ma_out) // 11
    ($ma_out $ma_out  $a_out) // 12
    ( $a_out $ma_out  $a_out) // 13
    ( $a_out  $a_out  $a_out) // 14
    ($ma_out  $a_out  $a_out) // 15
);

blocks
(
    hex ( 9  8 12 13  1  0  4  5) ($n $n $t) simpleGrading (1 1 0.1)
    hex (10  9 13 14  2  1  5  6) ($n $n $t) simpleGrading (1 1 0.1)
    hex (11 10 14 15  3  2  6  7) ($n $n $t) simpleGrading (1 1 0.1)
    hex ( 8 11 15 12  0  3  7  4) ($n $n $t) simpleGrading (1 1 0.1)
    hex ( 8  9 10 11  0  1  2  3) ($n $n $t) simpleGrading (1 1 0.1)
    hex (13 12 15 14  5  4  7  6) ($n $n $t) simpleGrading (1 1 0.1)
);

edges
(
);

faces
(
);

boundary
(
    out_wall
    {
        type wall;
        faces
        (
            ( 9 13 12  8)
            (11 15 14 10)
            ( 8 11 10  9)
            (12 15 14 13)
        );
    }

    out_to_in
    {
        type wall;
        faces
        (
            (0 4 7 3) 
            (2 6 5 1) 
            (1 5 4 0) 
            (3 7 6 2) 
            (0 3 2 1) 
            (4 5 6 7) 
        );
    }
);

// ************************************************************************* //
