/*--------------------------------*- C++ -*----------------------------------*\
| =========                 |                                                 |
| \\      /  F ield         | OpenFOAM: The Open Source CFD Toolbox           |
|  \\    /   O peration     | Version:  2212                                  |
|   \\  /    A nd           | Website:  www.openfoam.com                      |
|    \\/     M anipulation  |                                                 |
\*---------------------------------------------------------------------------*/
FoamFile
{
    version     2.0;
    format      ascii;
    arch        "LSB;label=32;scalar=64";
    class       volScalarField;
    location    "0";
    object      omega;
}
// * * * * * * * * * * * * * * * * * * * * * * * * * * * * * * * * * * * * * //

dimensions      [ 0 0 -1 0 0 0 0 ];

internalField   uniform 1.78;

boundaryField
{
    ball
    {
        type            omegaWallFunction;
        value           uniform 1.78;
    }
    inlet
    {
        type            fixedValue;
        value           uniform 0.001;
    }
    outlet
    {
        type            zeroGradient;
    }
    out_wall
    {
        type            zeroGradient;
    }
    in_to_out
    {
        type            cyclicAMI;
        neighbourPatch  out_to_in;
    }
    out_to_in
    {
        type            cyclicAMI;
        neighbourPatch  in_to_out;
    }
}


// ************************************************************************* //
