/*--------------------------------*- C++ -*----------------------------------*\
| =========                 |                                                 |
| \\      /  F ield         | OpenFOAM: The Open Source CFD Toolbox           |
|  \\    /   O peration     | Version:  v1912                                 |
|   \\  /    A nd           | Website:  www.openfoam.com                      |
|    \\/     M anipulation  |                                                 |
\*---------------------------------------------------------------------------*/
FoamFile
{
    version     2.0;
    format      ascii;
    class       pointVectorField;
    location    "0";
    object      pointDisplacement;
}
// * * * * * * * * * * * * * * * * * * * * * * * * * * * * * * * * * * * * * //

dimensions      [0 1 0 0 0 0 0];

internalField   uniform (0 0 0);

boundaryField
{
    ".*"
    {
        type            fixedValue;
        value           uniform (0 0 0);
    }

    ball
    {
        type            surfaceDisplacement;
        value           uniform (0 0 0);

        velocity            (1e-3 1e-3 1e-3);

        geometry
        {
            ball.stl
            {
                type triSurfaceMesh;
            }
        };
        projectMode pointNormal;
        
        projectDirection (1 1 1);
        wedgePlane      -1;
    }
}


// ************************************************************************* //
